 %nprocshared=40
 %mem=100GB
 # opt=(calcfc,ts,modredundant,noeigentest) freq b3lyp/6-31g(d) scrf=(s

cat6_s_bm2_u

0 1
C	-2.794369	1.274932	1.479580
O	-1.956430	1.296371	2.627351
H	-1.136304	0.807038	2.420169
C	-3.030592	2.697184	0.959831
C	-2.652726	3.767630	1.740242
C	-2.909478	5.090302	1.307241
N	-3.516577	5.387966	0.178570
C	-3.885625	4.351703	-0.629684
C	-3.651352	2.969935	-0.306402
C	-4.041225	1.984299	-1.244708
C	-4.672039	2.328280	-2.433020
C	-4.926256	3.691968	-2.733669
C	-4.530575	4.669546	-1.850572
H	-4.700463	5.719775	-2.067539
H	-5.418968	3.968475	-3.658317
O	-5.012976	1.301681	-3.251310
C	-5.604162	1.589411	-4.519959
H	-4.952958	2.224654	-5.130163
H	-5.719616	0.623802	-5.012897
H	-6.586456	2.065040	-4.402112
H	-3.832499	0.932462	-1.082867
H	-2.605634	5.927159	1.935243
H	-2.152469	3.594554	2.685418
H	-2.321915	0.698532	0.675529
C	-4.158309	0.618777	1.830770
H	-4.711735	0.500311	0.897612
C	-4.999182	1.444997	2.827275
H	-4.349624	2.089127	3.427736
H	-5.664606	2.095181	2.253589
C	-5.795814	0.516450	3.751969
C	-6.543997	-0.552227	2.916098
C	-7.617582	0.089964	2.056901
C	-8.043853	-0.243597	0.838312
H	-8.866229	0.298603	0.379186
H	-7.636276	-1.058059	0.245799
H	-8.136495	0.906932	2.562700
H	-7.058943	-1.207121	3.634326
C	-5.490358	-1.417479	2.185576
H	-5.447055	-2.436603	2.560651
H	-5.639388	-1.444940	1.107132
N	-4.079650	-0.845579	2.371583
C	-3.712699	-0.876084	3.858018
H	-2.751007	-0.374570	3.932674
H	-3.608677	-1.929103	4.108299
C	-4.807517	-0.184154	4.692304
H	-4.345599	0.548633	5.361332
H	-5.328834	-0.916650	5.317838
C	-3.092515	-1.666361	1.577808
H	-2.105060	-1.225276	1.710111
H	-3.371865	-1.580949	0.523883
H	-6.519613	1.096124	4.333785
C	-3.045255	-2.340715	-3.285589
C	-2.370585	-2.772891	-2.162775
C	-1.155365	-2.144615	-1.719100
C	-0.676458	-1.049509	-2.516093
C	-1.349704	-0.624208	-3.641255
C	-2.541590	-1.262229	-4.033276
H	-3.961408	-2.821458	-3.609640
H	-2.749340	-3.617067	-1.591934
H	0.242109	-0.555967	-2.210210
H	-0.981344	0.207784	-4.230525
N	-3.259441	-0.795508	-5.177239
O	-2.801937	0.161719	-5.825506
O	-4.326768	-1.361100	-5.486639
O	-0.532570	-2.536833	-0.660284
C	1.874304	-1.799884	1.127097
N	3.195833	-1.320094	0.730796
C	3.263296	-0.108105	1.098253
O	2.148635	0.415484	1.763489
C	1.242848	-0.612495	1.819141
O	0.148730	-0.488640	2.324623
C	4.368890	0.834878	0.816506
C	5.053306	1.503303	1.839750
C	6.098372	2.387341	1.534307
C	6.460050	2.598940	0.192501
C	5.783600	1.912339	-0.828119
C	4.746829	1.028457	-0.521478
C	3.951582	0.332322	-1.611446
O	2.810091	0.653191	-1.869383
O	4.657233	-0.636979	-2.178562
C	3.994233	-1.462431	-3.207364
C	4.157627	-0.790733	-4.563439
H	3.682697	-1.405080	-5.336717
H	5.217459	-0.676473	-4.817526
H	3.682032	0.194646	-4.575630
C	4.643703	-2.831854	-3.107608
H	4.512269	-3.250436	-2.105326
H	4.177209	-3.511911	-3.828785
H	5.715404	-2.775763	-3.329985
H	2.937268	-1.516820	-2.937322
Cl	6.205356	2.189878	-2.496312
Cl	7.738580	3.704509	-0.198114
Cl	6.946526	3.210835	2.805211
Cl	4.635154	1.188107	3.501708
C	1.904207	-3.071417	2.003443
H	2.471817	-2.860716	2.916700
H	1.256672	-2.000717	0.231601
C	2.490913	-4.281856	1.302649
C	1.913911	-4.787704	0.127085
C	3.610356	-4.931600	1.835786
C	2.447133	-5.918939	-0.491598
H	1.049700	-4.290007	-0.308489
C	4.142592	-6.065838	1.218385
H	4.071268	-4.546418	2.742831
C	3.561680	-6.563464	0.051705
H	1.989049	-6.298490	-1.401657
H	5.011902	-6.556428	1.648934
H	3.974433	-7.444679	-0.432699
H	0.867129	-3.266400	2.303578
C	-2.994697	-3.164317	1.957686
N	-2.007687	-3.780629	1.290576
H	-1.434608	-3.323179	0.542637
O	-3.734189	-3.715841	2.776977
H	-1.918145	-4.779166	1.438217

