 %nprocshared=40
 %mem=100GB
 # opt=(calcfc,ts,modredundant,noeigentest) freq 6-31g(d) scrf=(smd,sol

cat6_r_right_u

0 1
C	-3.043210	-0.285698	-0.712645
O	-2.369274	0.448537	-1.687954
H	-1.511375	0.747455	-1.238568
C	-3.534617	-1.609127	-1.278688
C	-3.610201	-1.785530	-2.635314
C	-4.099629	-3.008776	-3.160345
N	-4.484870	-4.019851	-2.423889
C	-4.383822	-3.884976	-1.070226
C	-3.911057	-2.701383	-0.433108
C	-3.802672	-2.680461	0.976757
C	-4.166122	-3.778011	1.732051
C	-4.658329	-4.948013	1.099702
C	-4.756959	-4.990048	-0.267952
H	-5.118593	-5.878498	-0.776190
H	-4.947341	-5.812528	1.686282
O	-4.017000	-3.659469	3.072962
C	-4.383916	-4.759884	3.885666
H	-3.778103	-5.644889	3.659685
H	-4.194246	-4.448210	4.913422
H	-5.447064	-5.003915	3.774043
H	-3.405095	-1.818428	1.504246
H	-4.169496	-3.137110	-4.239089
H	-3.286040	-0.992610	-3.300323
H	-2.360076	-0.516006	0.115939
C	-4.273741	0.468826	-0.155316
H	-4.749612	-0.178424	0.589312
C	-5.268312	0.855445	-1.257525
H	-4.723092	0.995747	-2.197236
H	-5.973267	0.032117	-1.399383
C	-5.985657	2.150826	-0.874517
C	-6.444678	2.077764	0.597133
C	-7.378187	0.930457	0.872166
C	-8.650552	1.083977	1.227163
H	-9.297067	0.230560	1.408427
H	-9.093314	2.070720	1.348869
H	-6.975411	-0.077842	0.768188
H	-6.980218	3.005867	0.827031
C	-5.173081	2.049123	1.480544
H	-4.982946	3.009776	1.952952
H	-5.222047	1.275979	2.254459
N	-3.942770	1.743280	0.646682
C	-3.677592	2.906983	-0.301429
H	-2.932448	2.547221	-1.008667
H	-3.258243	3.709513	0.304984
C	-4.986293	3.303956	-0.999894
H	-4.772482	3.513745	-2.051401
H	-5.400597	4.216153	-0.558398
C	-2.755257	1.500066	1.520408
H	-1.872195	1.382978	0.879015
H	-2.918580	0.554837	2.048043
H	-6.852394	2.315763	-1.519096
C	-0.529921	4.369279	-2.290048
C	-0.406299	3.014336	-2.071021
C	-0.209108	2.483545	-0.760678
C	-0.090870	3.426679	0.303861
C	-0.205992	4.786198	0.085154
C	-0.439025	5.253765	-1.211541
H	-0.694795	4.765545	-3.285640
H	-0.477043	2.312810	-2.896971
H	0.095628	3.040968	1.302657
H	-0.131472	5.496167	0.901191
N	-0.585756	6.670327	-1.445637
O	-0.456754	7.434696	-0.497118
O	-0.839420	7.047647	-2.584211
O	-0.198457	1.204915	-0.550833
C	0.918750	-1.630690	0.565203
N	2.240497	-1.332862	0.040007
C	2.615638	-0.269812	0.613931
O	1.731632	0.330681	1.493165
C	0.604818	-0.447802	1.463783
O	-0.361517	-0.233847	2.143990
C	3.989377	0.277745	0.518784
C	4.254738	1.625733	0.270951
C	5.576137	2.076607	0.183904
C	6.634819	1.174300	0.347600
C	6.361894	-0.177446	0.581937
C	5.047196	-0.626243	0.661933
C	4.756784	-2.074642	0.993536
O	4.328551	-2.417078	2.069034
O	5.055037	-2.864410	-0.025047
C	4.823842	-4.290339	0.153573
C	3.336037	-4.570478	0.036962
H	3.157910	-5.649243	0.087873
H	2.955055	-4.194096	-0.917733
H	2.788256	-4.090218	0.851616
C	5.644946	-4.974054	-0.921859
H	6.707666	-4.737967	-0.812952
H	5.519798	-6.058512	-0.848015
H	5.312783	-4.652423	-1.913661
H	5.191230	-4.554093	1.150647
Cl	7.658428	-1.299599	0.824516
Cl	8.263450	1.729100	0.261961
Cl	5.898802	3.738801	-0.133934
Cl	2.941855	2.711166	0.017881
C	-0.140651	-1.948627	-0.495412
H	-1.070900	-2.167399	0.041887
H	1.018898	-2.505523	1.226797
C	0.251665	-3.134436	-1.339235
C	-0.113499	-4.427822	-0.959967
C	1.011556	-2.957624	-2.497829
C	0.274240	-5.526368	-1.723259
H	-0.716691	-4.574666	-0.065593
C	1.397901	-4.053656	-3.265387
H	1.302845	-1.952686	-2.792146
C	1.031115	-5.341671	-2.877587
H	-0.022099	-6.526296	-1.419685
H	1.984419	-3.900727	-4.167159
H	1.329342	-6.197615	-3.475711
H	-0.294934	-1.061615	-1.115683
C	-2.444016	2.597418	2.546072
N	-1.469610	2.210387	3.397403
H	-1.083005	2.917155	4.010491
H	-0.906417	1.388000	3.196710
O	-3.005272	3.680335	2.596942

