 %nprocshared=40
 %mem=100GB
 # opt=(calcfc,ts,modredundant,noeigentest) freq 6-31g(d) scrf=(smd,sol

cat6_s_left_u

0 1
C	3.092886	-0.718533	-0.524894
O	2.186324	-1.548070	-1.197800
H	1.370058	-0.993834	-1.312273
C	3.741765	0.288604	-1.466877
C	3.678417	0.102357	-2.822504
C	4.201421	1.091931	-3.691758
N	4.739860	2.213477	-3.283096
C	4.809353	2.425947	-1.937695
C	4.343013	1.487604	-0.972991
C	4.429939	1.816879	0.398196
C	4.925768	3.039073	0.803878
C	5.395468	3.972626	-0.155941
C	5.332157	3.664127	-1.490645
H	5.660795	4.372447	-2.244181
H	5.769179	4.940955	0.154733
O	4.918487	3.279451	2.136088
C	5.313282	4.567891	2.579842
H	4.698155	5.348019	2.121257
H	5.160090	4.569334	3.659652
H	6.373201	4.753193	2.368821
H	4.043363	1.152384	1.165005
H	4.149893	0.938913	-4.768341
H	3.187994	-0.775933	-3.228094
H	2.560696	-0.135174	0.235876
C	4.194466	-1.568162	0.127598
H	4.942392	-0.881057	0.534331
C	4.846041	-2.563382	-0.860175
H	4.409421	-2.412969	-1.850264
H	5.919431	-2.364755	-0.931283
C	4.604260	-4.005137	-0.405325
C	5.333736	-4.242968	0.931429
C	6.816539	-4.431765	0.739007
C	7.814165	-3.790813	1.341930
H	8.845719	-4.037648	1.110436
H	7.668823	-3.018288	2.091933
H	7.062560	-5.210808	0.016904
H	4.942375	-5.179057	1.353750
C	4.968431	-3.089707	1.877424
H	4.748626	-3.420896	2.891247
H	5.748763	-2.326546	1.917717
N	3.736524	-2.358700	1.368513
C	2.662370	-3.373340	1.024999
H	1.745464	-2.810584	0.843952
H	2.550574	-3.982279	1.926219
C	3.104963	-4.213741	-0.181016
H	2.549615	-3.905340	-1.068575
H	2.892538	-5.268155	0.018341
C	3.238305	-1.418955	2.428834
H	2.493121	-0.768030	1.976742
H	4.094702	-0.831475	2.771049
H	4.976295	-4.700653	-1.163107
O	0.122406	0.183845	-1.093857
C	0.638710	1.373566	-0.931387
C	0.989187	2.148239	-2.073866
C	0.903014	1.943446	0.346620
C	1.598178	3.380292	-1.955440
H	0.785693	1.723482	-3.051890
C	1.504107	3.180927	0.465434
H	0.631700	1.389814	1.237755
C	1.861858	3.891995	-0.680531
H	1.892861	3.948421	-2.830795
H	1.726170	3.601640	1.439835
N	2.547431	5.151299	-0.544119
O	2.819140	5.547001	0.587230
O	2.842740	5.772112	-1.556110
C	-1.471282	-1.798757	-0.272652
N	-2.718099	-1.092239	-0.539660
C	-2.658324	-0.026513	0.143339
C	-3.798104	0.908137	0.311891
C	-5.004853	0.369266	0.760652
C	-6.113923	1.190798	0.936676
C	-6.028018	2.558438	0.657733
C	-4.823524	3.096615	0.186816
C	-3.709963	2.267719	0.013409
Cl	-2.236388	2.899227	-0.614937
Cl	-4.714452	4.775551	-0.183390
Cl	-7.396870	3.577710	0.892789
Cl	-7.585830	0.515486	1.548101
C	-5.062591	-1.097704	1.123219
O	-4.478519	-1.550471	2.077168
O	-5.824763	-1.770090	0.277525
C	-5.967228	-3.198028	0.512793
C	-7.187111	-3.616424	-0.282365
H	-7.391200	-4.677851	-0.115203
H	-8.065685	-3.040073	0.020267
H	-7.015320	-3.459884	-1.351841
C	-4.698323	-3.910557	0.078718
H	-4.831623	-4.992593	0.176901
H	-4.473100	-3.677267	-0.966562
H	-3.851466	-3.607784	0.699150
H	-6.136530	-3.332759	1.585776
O	-1.534095	0.216379	0.877847
C	-0.635250	-0.800894	0.532910
O	0.331106	-1.033986	1.239427
H	-1.705924	-2.602183	0.445375
C	-0.848159	-2.431082	-1.515031
H	0.132299	-2.833033	-1.234849
C	-1.727249	-3.526691	-2.067232
C	-1.653443	-4.825773	-1.557732
C	-2.659279	-3.251631	-3.070709
C	-2.487621	-5.830901	-2.041468
H	-0.929808	-5.051764	-0.776287
C	-3.493228	-4.254278	-3.560428
H	-2.732424	-2.240422	-3.462134
C	-3.409809	-5.546853	-3.046631
H	-2.414228	-6.836580	-1.637652
H	-4.209875	-4.024811	-4.343543
H	-4.058583	-6.329335	-3.428687
H	-0.691670	-1.644827	-2.256011
C	2.628425	-2.151680	3.633885
N	1.312254	-1.935432	3.782602
H	0.839512	-2.367601	4.566419
H	0.764180	-1.443477	3.080983
O	3.306911	-2.839988	4.383262

