 %nprocshared=40
 %mem=100GB
 # opt=(calcfc,ts,modredundant,noeigentest) freq b3lyp/6-31g(d) scrf=(s

cat6_r_bm2_u

0 1
C	2.994241	0.336607	1.559266
O	1.979897	1.007446	2.277288
H	1.171385	0.990046	1.716038
C	3.556402	-0.836139	2.367327
C	3.262289	-0.946157	3.708163
C	3.793893	-2.017975	4.465457
N	4.568937	-2.958069	3.966888
C	4.854739	-2.896290	2.633333
C	4.374914	-1.852670	1.770765
C	4.710340	-1.906191	0.397018
C	5.486751	-2.933762	-0.118395
C	5.964897	-3.959307	0.738261
C	5.651030	-3.929408	2.077917
H	5.998085	-4.709442	2.748726
H	6.562472	-4.772189	0.342445
O	5.749920	-2.873330	-1.449307
C	6.412370	-3.974064	-2.074637
H	5.831181	-4.895600	-1.969226
H	6.476638	-3.712602	-3.131839
H	7.424872	-4.111836	-1.674832
H	4.336866	-1.169490	-0.304392
H	3.562376	-2.088388	5.527725
H	2.610874	-0.218431	4.177865
H	2.583062	-0.079129	0.633496
C	4.150975	1.314184	1.216772
H	4.902665	0.751213	0.661385
C	4.790103	1.961918	2.471657
H	4.196129	1.705835	3.352064
H	5.787723	1.541100	2.626636
C	4.844018	3.490308	2.342033
C	5.668373	3.910199	1.098779
C	7.152507	3.691229	1.246281
C	8.067070	4.659787	1.189824
H	9.126979	4.450563	1.310279
H	7.793597	5.700101	1.022010
H	7.477125	2.661762	1.405534
H	5.501048	4.981357	0.934297
C	5.115632	3.134891	-0.125634
H	4.921407	3.781728	-0.977794
H	5.787030	2.331842	-0.440257
N	3.783239	2.455323	0.212798
C	2.850494	3.503902	0.820773
H	1.869292	3.043094	0.905108
H	2.810076	4.301211	0.077978
C	3.403914	3.996913	2.168630
H	2.780492	3.619840	2.983636
H	3.371943	5.091050	2.196017
C	3.144457	1.877371	-1.026798
H	2.254471	1.339195	-0.706366
H	3.857177	1.172817	-1.467074
H	5.290123	3.921930	3.242859
C	1.872888	-2.037897	-3.693710
C	1.060298	-0.947004	-3.450794
C	0.490171	-0.709905	-2.166124
C	0.773042	-1.653120	-1.138848
C	1.579709	-2.752023	-1.386951
C	2.140444	-2.941995	-2.655878
H	2.307626	-2.203873	-4.672410
H	0.837573	-0.242938	-4.246999
H	0.339062	-1.521752	-0.157366
H	1.791451	-3.467569	-0.601644
N	3.017919	-4.062441	-2.888725
O	3.198379	-4.874089	-1.968354
O	3.560529	-4.168947	-3.998248
O	-0.240412	0.380456	-2.010746
C	-1.943310	1.950953	-0.756853
N	-3.171418	1.152031	-0.708999
C	-2.839152	0.024543	-0.220161
O	-1.535137	-0.196940	0.105253
C	-0.807950	0.973830	-0.343943
O	0.211581	1.298973	0.277516
C	-3.804659	-1.059291	0.117404
C	-3.794672	-2.290909	-0.549587
C	-4.706173	-3.298676	-0.200603
C	-5.635077	-3.071084	0.828355
C	-5.659436	-1.827760	1.476949
C	-4.759160	-0.820076	1.117172
C	-4.755807	0.511401	1.842073
O	-3.865685	0.841855	2.596296
O	-5.840940	1.221175	1.539554
C	-6.023843	2.517302	2.211671
C	-5.205574	3.580941	1.493280
H	-5.379829	4.556766	1.961436
H	-5.489800	3.645784	0.438227
H	-4.136881	3.360184	1.554296
C	-7.521152	2.778765	2.189293
H	-8.068380	1.973774	2.690221
H	-7.739681	3.718321	2.708745
H	-7.888335	2.861241	1.160296
H	-5.668134	2.395740	3.238815
Cl	-6.788330	-1.549626	2.779503
Cl	-6.747913	-4.322771	1.288475
Cl	-4.688423	-4.820956	-1.036607
Cl	-2.673350	-2.545316	-1.853977
C	-1.790582	2.736254	-2.070039
H	-0.801686	3.206934	-2.059545
H	-1.991207	2.674024	0.070654
C	-2.853418	3.800326	-2.253888
C	-2.624692	5.119855	-1.840047
C	-4.089675	3.490230	-2.838262
C	-3.601292	6.104566	-2.002715
H	-1.668189	5.380999	-1.390779
C	-5.068116	4.471467	-3.004795
H	-4.284995	2.470281	-3.157624
C	-4.827442	5.782855	-2.587284
H	-3.401351	7.123039	-1.678911
H	-6.018798	4.211654	-3.463747
H	-5.587985	6.548003	-2.720363
H	-1.808528	2.025061	-2.898972
C	2.738439	2.898876	-2.109968
N	1.657728	2.501357	-2.809613
H	1.021309	1.752319	-2.515129
O	3.369086	3.926950	-2.355185
H	1.366093	3.089421	-3.581458

