 %nprocshared=40
 %mem=100GB
 # opt=(calcfc,ts,modredundant,noeigentest) freq 6-31g(d) scrf=(smd,sol

cat6_r_left_u

0 1
C	2.746219	-0.127982	0.596989
O	1.933679	0.578441	1.499692
H	1.019961	0.205838	1.377021
C	3.191882	-1.469501	1.166464
C	3.260963	-1.657174	2.521566
C	3.628690	-2.925265	3.036577
N	3.890926	-3.968516	2.289821
C	3.806059	-3.814551	0.936879
C	3.480760	-2.577097	0.310470
C	3.362191	-2.533907	-1.096475
C	3.517839	-3.677355	-1.853524
C	3.850402	-4.908162	-1.232500
C	3.992527	-4.963136	0.130821
H	4.218067	-5.898293	0.632830
H	3.959107	-5.811695	-1.820748
O	3.328550	-3.546028	-3.187627
C	3.250704	-4.731832	-3.963147
H	2.497480	-5.416232	-3.559206
H	2.958217	-4.414007	-4.964751
H	4.222340	-5.237234	-4.019193
H	3.070493	-1.627968	-1.618023
H	3.691238	-3.068350	4.114132
H	2.982891	-0.856046	3.198645
H	2.171393	-0.326076	-0.315043
C	4.026832	0.672998	0.278242
H	4.710369	-0.005191	-0.241543
C	4.691594	1.259081	1.547125
H	4.150683	0.903664	2.425467
H	5.724837	0.907188	1.622456
C	4.657159	2.790939	1.514121
C	5.567468	3.284449	0.373086
C	7.027064	3.223667	0.742273
C	8.019213	2.648283	0.068341
H	9.036777	2.686347	0.444890
H	7.882817	2.138688	-0.881594
H	7.261146	3.737901	1.674897
H	5.324187	4.340816	0.190638
C	5.214004	2.475342	-0.881062
H	5.176882	3.081525	-1.784608
H	5.900863	1.639317	-1.037175
N	3.847773	1.826072	-0.725081
C	2.851779	2.837033	-0.197261
H	1.877759	2.349734	-0.252229
H	2.883704	3.675620	-0.897451
C	3.228256	3.260168	1.228563
H	2.533213	2.811697	1.939641
H	3.152736	4.348991	1.308513
C	3.393197	1.296476	-2.052436
H	2.542927	0.641637	-1.877588
H	4.222714	0.725261	-2.480201
H	5.005051	3.189651	2.471418
O	-0.395720	-0.435237	0.639112
C	-0.162274	-1.697147	0.337394
C	0.234393	-2.592834	1.365324
C	-0.257562	-2.215626	-0.980613
C	0.558085	-3.907456	1.100041
H	0.321070	-2.205001	2.375910
C	0.087517	-3.525848	-1.251458
H	-0.578043	-1.570700	-1.787450
C	0.505070	-4.363307	-0.218040
H	0.888704	-4.576555	1.886959
H	0.044954	-3.911787	-2.263778
N	0.915574	-5.713462	-0.520169
O	0.962759	-6.059221	-1.697422
O	1.214534	-6.454362	0.405471
C	-0.791563	2.041828	0.071446
N	-2.195410	1.937202	0.470497
C	-2.692523	1.059038	-0.295084
C	-4.115818	0.628094	-0.331608
C	-4.573696	-0.359513	0.538899
C	-5.905061	-0.765864	0.489800
C	-6.784556	-0.195235	-0.435827
C	-6.319512	0.780855	-1.326802
C	-4.982892	1.183452	-1.271188
Cl	-4.382171	2.380515	-2.366528
Cl	-7.390484	1.481838	-2.480403
Cl	-8.435662	-0.687004	-0.481225
Cl	-6.469840	-1.957886	1.607689
C	-3.610046	-1.025402	1.494786
O	-3.264379	-2.171792	1.373274
O	-3.231072	-0.177791	2.439401
C	-2.208019	-0.643915	3.358619
C	-1.387200	0.576555	3.717426
H	-0.563092	0.290532	4.379077
H	-0.972594	1.018112	2.807536
H	-2.002972	1.324875	4.227237
C	-2.889286	-1.304194	4.542851
H	-2.139152	-1.658563	5.256570
H	-3.545931	-0.591852	5.052862
H	-3.483528	-2.162289	4.215796
H	-1.598569	-1.366736	2.814274
O	-1.880665	0.434543	-1.198491
C	-0.580687	0.846398	-0.855845
O	0.347751	0.656471	-1.627725
H	-0.133044	1.967207	0.940646
C	-0.534995	3.362104	-0.681427
H	-1.463482	3.652846	-1.188844
C	-0.050513	4.491146	0.200775
C	-0.422501	4.585098	1.544674
C	0.792646	5.472071	-0.331737
C	0.050997	5.626862	2.339506
H	-1.097888	3.845142	1.968329
C	1.262077	6.517781	0.458826
H	1.083160	5.413036	-1.379476
C	0.896167	6.594285	1.801479
H	-0.247320	5.683843	3.382192
H	1.915963	7.270165	0.027041
H	1.262139	7.406298	2.422590
H	0.206072	3.182132	-1.469081
C	2.994032	2.406634	-3.037940
N	1.755948	2.254100	-3.536123
H	1.097997	1.582722	-3.146965
O	3.754030	3.311361	-3.353698
H	1.434491	2.918071	-4.229516

